<?xml version='1.0' encoding='UTF-8'?>
<routes xmlns:xsi="http://www.w3.org/2001/XMLSchema-instance" xsi:noNamespaceSchemaLocation="http://sumo.dlr.de/xsd/routes_file.xsd">
    <vehicle id="0" type="vehicle.aito_m9.aito_m9" depart="0.00">
        <route edges="-16.0.00 -17.0.00 -18.0.00"/>
    </vehicle>
</routes>
