<?xml version="1.0" encoding="UTF-8"?>

<!-- generated on 2024-11-26 16:05:28 by Eclipse SUMO netedit Version 1.18.0
<configuration xmlns:xsi="http://www.w3.org/2001/XMLSchema-instance" xsi:noNamespaceSchemaLocation="http://sumo.dlr.de/xsd/neteditConfiguration.xsd">

    <input>
        <sumo-net-file value="C:\Users\13313\Desktop\1126新路网交通流\11_04tflj.net.xml"/>
    </input>

    <output>
        <output-file value="C:\Users\13313\Desktop\1126新路网交通流\11_04tflj.net.xml"/>
    </output>

    <processing>
        <geometry.min-radius.fix.railways value="false"/>
        <geometry.max-grade.fix value="false"/>
        <offset.disable-normalization value="true"/>
        <lefthand value="0"/>
    </processing>

    <junctions>
        <no-turnarounds value="true"/>
        <junctions.corner-detail value="5"/>
        <junctions.limit-turn-speed value="5.50"/>
        <rectangular-lane-cut value="1"/>
    </junctions>

    <pedestrian>
        <walkingareas value="0"/>
    </pedestrian>

</configuration>
-->

<net version="1.16" junctionCornerDetail="5" rectangularLaneCut="true" limitTurnSpeed="5.50" xmlns:xsi="http://www.w3.org/2001/XMLSchema-instance" xsi:noNamespaceSchemaLocation="http://sumo.dlr.de/xsd/net_file.xsd">

    <location netOffset="-3801.68,555.44" convBoundary="0.00,0.00,1312.46,1364.22" origBoundary="0.000000,0.000000,0.000000,0.000000" projParameter="+proj=tmerc +lat_0=30.5993182797386 +lon_0=104.0186223219355 +k=1 +x_0=0 +y_0=0 +datum=WGS84 +units=m  +vunits=m +no_defs "/>

    <edge id=":1051_0" function="internal">
        <lane id=":1051_0_0" index="0" disallow="all" speed="7.34" length="12.84" width="0.63" shape="978.62,728.07 978.05,724.89 976.40,722.65 973.68,721.37 969.88,721.03">
            <param key="origId" value="1084_1"/>
        </lane>
    </edge>
    <edge id=":1051_1" function="internal">
        <lane id=":1051_1_0" index="0" disallow="pedestrian tram rail_urban rail rail_electric rail_fast ship" speed="9.73" length="21.49" width="3.50" shape="981.18,728.05 980.39,721.54 978.16,716.91 974.48,714.17 969.35,713.32">
            <param key="origId" value="1089_-1"/>
        </lane>
    </edge>
    <edge id=":1051_2" function="internal">
        <lane id=":1051_2_0" index="0" disallow="pedestrian tram rail_urban rail rail_electric rail_fast ship" speed="17.88" length="40.30" width="3.50" shape="981.18,728.05 979.83,687.77,0.15">
            <param key="origId" value="1054_-1"/>
        </lane>
    </edge>
    <edge id=":1051_3" function="internal">
        <lane id=":1051_3_0" index="0" disallow="pedestrian tram rail_urban rail rail_electric rail_fast ship" speed="10.95" length="27.58" width="3.50" shape="984.68,728.02 983.66,719.75 980.75,713.87 975.96,710.40 969.29,709.32">
            <param key="origId" value="1096_-1"/>
        </lane>
    </edge>
    <edge id=":1051_4" function="internal">
        <lane id=":1051_4_0" index="0" disallow="pedestrian tram rail_urban rail rail_electric rail_fast ship" speed="17.88" length="40.30" width="3.50" shape="984.68,728.02 983.33,687.74,0.15">
            <param key="origId" value="1052_-1"/>
        </lane>
        <lane id=":1051_4_1" index="1" disallow="pedestrian tram rail_urban rail rail_electric rail_fast ship" speed="17.88" length="40.30" width="3.50" shape="988.18,727.99 986.83,687.71,0.15">
            <param key="origId" value="1060_-1"/>
        </lane>
    </edge>
    <edge id=":1051_6" function="internal">
        <lane id=":1051_6_0" index="0" disallow="all" speed="6.62" length="10.19" width="0.64" shape="1005.00,719.39 1003.34,719.94 1002.15,721.54 1001.46,724.19 1001.25,727.89">
            <param key="origId" value="1103_1"/>
        </lane>
        <lane id=":1051_6_1" index="1" disallow="pedestrian tram rail_urban rail rail_electric rail_fast ship" speed="8.05" length="14.23" width="3.50" shape="1004.97,716.82 1002.18,717.55 1000.21,719.64 999.04,723.09 998.68,727.91">
            <param key="origId" value="1107_-1"/>
        </lane>
    </edge>
    <edge id=":1051_8" function="internal">
        <lane id=":1051_8_0" index="0" disallow="pedestrian tram rail_urban rail rail_electric rail_fast ship" speed="17.88" length="35.94" width="3.50" shape="1004.97,716.82 994.37,716.34 987.16,715.06 979.95,713.78 969.35,713.32">
            <param key="origId" value="1128_-1"/>
        </lane>
        <lane id=":1051_8_1" index="1" disallow="pedestrian tram rail_urban rail rail_electric rail_fast ship" speed="17.88" length="35.94" width="3.50" shape="1004.92,713.32 994.31,712.77 987.10,711.31 979.89,709.86 969.29,709.32">
            <param key="origId" value="1132_-1"/>
        </lane>
        <lane id=":1051_8_2" index="2" disallow="pedestrian tram rail_urban rail rail_electric rail_fast ship" speed="17.88" length="35.94" width="3.50" shape="1004.87,709.82 994.26,709.27 987.05,707.81 979.84,706.36 969.23,705.82">
            <param key="origId" value="1110_-1"/>
        </lane>
        <lane id=":1051_8_3" index="3" disallow="pedestrian tram rail_urban rail rail_electric rail_fast ship" speed="17.88" length="35.94" width="3.50" shape="1004.82,706.32 994.20,705.77 986.99,704.31 979.79,702.86 969.17,702.32">
            <param key="origId" value="1115_-1"/>
        </lane>
        <lane id=":1051_8_4" index="4" disallow="pedestrian tram rail_urban rail rail_electric rail_fast ship" speed="17.88" length="35.94" width="3.50" shape="1004.76,702.82 994.15,702.27 986.94,700.81 979.73,699.36 969.12,698.82">
            <param key="origId" value="1121_-1"/>
        </lane>
    </edge>
    <edge id=":1051_13" function="internal">
        <lane id=":1051_13_0" index="0" disallow="pedestrian tram rail_urban rail rail_electric rail_fast ship" speed="17.88" length="40.30" width="3.50" shape="997.33,687.63,0.15 998.68,727.91">
            <param key="origId" value="1056_1"/>
        </lane>
        <lane id=":1051_13_1" index="1" disallow="pedestrian tram rail_urban rail rail_electric rail_fast ship" speed="17.88" length="40.30" width="3.50" shape="993.83,687.66,0.15 995.18,727.94">
            <param key="origId" value="1058_1"/>
        </lane>
        <lane id=":1051_13_2" index="2" disallow="pedestrian tram rail_urban rail rail_electric rail_fast ship" speed="17.88" length="40.30" width="3.50" shape="990.33,687.69,0.15 991.68,727.97">
            <param key="origId" value="1062_1"/>
        </lane>
    </edge>
    <edge id=":1051_16" function="internal">
        <lane id=":1051_16_0" index="0" disallow="pedestrian tram rail_urban rail rail_electric rail_fast ship" speed="10.81" length="26.49" width="3.50" shape="990.33,687.69,0.15 989.04,692.43,0.12 985.07,695.87,0.09 978.43,698.00,0.05 969.12,698.82">
            <param key="origId" value="1073_1"/>
        </lane>
    </edge>
    <edge id=":1134_0" function="internal">
        <lane id=":1134_0_0" index="0" disallow="all" speed="17.88" length="50.51" width="0.63" shape="728.90,662.12,6.00 742.01,660.55,6.22 753.72,656.49,6.42 764.04,649.95,6.62 772.97,640.93,6.83">
            <param key="origId" value="1156_-1"/>
        </lane>
        <lane id=":1134_0_1" index="1" disallow="pedestrian tram rail_urban rail rail_electric rail_fast ship" speed="17.88" length="53.58" width="3.75" shape="728.95,664.36,6.00 743.89,662.79,6.23 756.81,658.85,6.44 767.72,652.54,6.64 776.63,643.86,6.83">
            <param key="origId" value="1150_-1"/>
        </lane>
    </edge>
    <edge id=":1134_2" function="internal">
        <lane id=":1134_2_0" index="0" disallow="pedestrian tram rail_urban rail rail_electric rail_fast ship" speed="17.88" length="61.87" width="3.00" shape="729.03,667.73,6.00 790.89,666.85,6.00">
            <param key="origId" value="1135_-1"/>
        </lane>
        <lane id=":1134_2_1" index="1" disallow="pedestrian tram rail_urban rail rail_electric rail_fast ship" speed="17.88" length="61.87" width="3.25" shape="729.12,671.36,6.00 790.97,669.98,6.00">
            <param key="origId" value="1137_-1"/>
        </lane>
        <lane id=":1134_2_2" index="2" disallow="pedestrian tram rail_urban rail rail_electric rail_fast ship" speed="17.88" length="61.87" width="3.50" shape="729.20,674.86,6.00 791.07,673.35,6.00">
            <param key="origId" value="1139_-1"/>
        </lane>
        <lane id=":1134_2_3" index="3" disallow="pedestrian tram rail_urban rail rail_electric rail_fast ship" speed="17.88" length="61.87" width="3.50" shape="729.29,678.23,6.00 791.16,676.85,6.00">
            <param key="origId" value="1146_-1"/>
        </lane>
    </edge>
    <edge id=":114_0" function="internal">
        <lane id=":114_0_0" index="0" disallow="all" speed="17.88" length="40.08" width="0.64" shape="301.60,244.93 300.57,285.00">
            <param key="origId" value="128_5"/>
        </lane>
        <lane id=":114_0_1" index="1" disallow="all" speed="17.88" length="40.08" width="0.50" shape="301.03,244.92 300.00,284.99">
            <param key="origId" value="128_4"/>
        </lane>
        <lane id=":114_0_2" index="2" disallow="pedestrian tram rail_urban rail rail_electric rail_fast ship" speed="17.88" length="40.08" width="3.50" shape="299.03,244.87 298.00,284.94">
            <param key="origId" value="128_3"/>
        </lane>
        <lane id=":114_0_3" index="3" disallow="pedestrian tram rail_urban rail rail_electric rail_fast ship" speed="17.88" length="40.08" width="3.50" shape="295.53,244.78 294.50,284.85">
            <param key="origId" value="128_2"/>
        </lane>
        <lane id=":114_0_4" index="4" disallow="pedestrian tram rail_urban rail rail_electric rail_fast ship" speed="17.88" length="40.08" width="3.50" shape="292.03,244.69 291.00,284.76">
            <param key="origId" value="128_1"/>
        </lane>
    </edge>
    <edge id=":114_5" function="internal">
        <lane id=":114_5_0" index="0" disallow="pedestrian tram rail_urban rail rail_electric rail_fast ship" speed="13.03" length="6.39" width="3.50" shape="292.03,244.69 291.01,251.00">
            <param key="origId" value="136_1"/>
        </lane>
    </edge>
    <edge id=":114_17" function="internal">
        <lane id=":114_17_0" index="0" disallow="pedestrian tram rail_urban rail rail_electric rail_fast ship" speed="13.03" length="31.64" width="3.50" shape="291.01,251.00 290.34,255.14 285.88,262.66 278.65,267.25 268.65,268.90">
            <param key="origId" value="136_1"/>
        </lane>
    </edge>
    <edge id=":114_6" function="internal">
        <lane id=":114_6_0" index="0" disallow="all" speed="8.79" length="17.60" width="0.63" shape="268.44,255.84 272.94,255.06 276.19,252.88 278.20,249.31 278.97,244.35">
            <param key="origId" value="139_-1"/>
        </lane>
        <lane id=":114_6_1" index="1" disallow="pedestrian tram rail_urban rail rail_electric rail_fast ship" speed="9.93" length="21.61" width="3.50" shape="268.48,258.40 274.06,257.45 278.09,254.80 280.58,250.46 281.53,244.41">
            <param key="origId" value="130_-1"/>
        </lane>
        <lane id=":114_6_2" index="2" disallow="pedestrian tram rail_urban rail rail_electric rail_fast ship" speed="11.06" length="27.08" width="3.50" shape="268.54,261.90 275.59,260.72 280.69,257.42 283.84,252.02 285.03,244.50">
            <param key="origId" value="133_-1"/>
        </lane>
    </edge>
    <edge id=":114_9" function="internal">
        <lane id=":114_9_0" index="0" disallow="pedestrian tram rail_urban rail rail_electric rail_fast ship" speed="11.97" length="34.03" width="3.50" shape="268.59,265.40 278.59,266.47 285.65,270.06 289.79,276.15 291.00,284.76">
            <param key="origId" value="115_-1"/>
        </lane>
    </edge>
    <edge id=":114_10" function="internal">
        <lane id=":114_10_0" index="0" disallow="all" speed="7.16" length="12.39" width="0.63" shape="277.94,284.42 277.43,281.76 275.73,279.88 272.86,278.78 268.80,278.46">
            <param key="origId" value="117_-1"/>
        </lane>
    </edge>
    <edge id=":114_11" function="internal">
        <lane id=":114_11_0" index="0" disallow="all" speed="17.88" length="40.08" width="0.50" shape="278.50,284.43 279.53,244.36">
            <param key="origId" value="129_-4"/>
        </lane>
    </edge>
    <edge id=":114_12" function="internal">
        <lane id=":114_12_0" index="0" disallow="pedestrian tram rail_urban rail rail_electric rail_fast ship" speed="8.51" length="3.88" width="3.50" shape="280.50,284.48 279.85,280.66">
            <param key="origId" value="121_-1"/>
        </lane>
    </edge>
    <edge id=":114_13" function="internal">
        <lane id=":114_13_0" index="0" disallow="pedestrian tram rail_urban rail rail_electric rail_fast ship" speed="17.88" length="40.08" width="3.50" shape="280.50,284.48 281.53,244.41">
            <param key="origId" value="129_-3"/>
        </lane>
    </edge>
    <edge id=":114_14" function="internal">
        <lane id=":114_14_0" index="0" disallow="pedestrian tram rail_urban rail rail_electric rail_fast ship" speed="9.80" length="4.86" width="3.50" shape="284.00,284.57 283.26,279.77">
            <param key="origId" value="123_-1"/>
        </lane>
    </edge>
    <edge id=":114_15" function="internal">
        <lane id=":114_15_0" index="0" disallow="pedestrian tram rail_urban rail rail_electric rail_fast ship" speed="17.88" length="40.08" width="3.50" shape="284.00,284.57 285.03,244.50">
            <param key="origId" value="129_-2"/>
        </lane>
        <lane id=":114_15_1" index="1" disallow="pedestrian tram rail_urban rail rail_electric rail_fast ship" speed="17.88" length="40.08" width="3.50" shape="287.50,284.66 288.53,244.59">
            <param key="origId" value="129_-1"/>
        </lane>
    </edge>
    <edge id=":114_18" function="internal">
        <lane id=":114_18_0" index="0" disallow="pedestrian tram rail_urban rail rail_electric rail_fast ship" speed="8.51" length="12.74" width="3.50" shape="279.85,280.66 277.68,277.95 273.98,276.36 268.76,275.90">
            <param key="origId" value="121_-1"/>
        </lane>
    </edge>
    <edge id=":114_19" function="internal">
        <lane id=":114_19_0" index="0" disallow="pedestrian tram rail_urban rail rail_electric rail_fast ship" speed="9.80" length="17.56" width="3.50" shape="283.26,279.77 283.17,279.15 280.34,275.32 275.52,273.07 268.70,272.40">
            <param key="origId" value="123_-1"/>
        </lane>
    </edge>
    <edge id=":1162_0" function="internal">
        <lane id=":1162_0_0" index="0" disallow="all" speed="17.88" length="54.26" width="0.64" shape="629.36,467.68,8.90 637.88,454.75,8.81 642.72,445.08,8.75 645.01,434.59,8.69 645.88,419.21,8.60">
            <param key="origId" value="1164_-1"/>
        </lane>
        <lane id=":1162_0_1" index="1" disallow="pedestrian tram rail_urban rail rail_electric rail_fast ship" speed="17.88" length="54.26" width="3.50" shape="633.67,470.58,8.90 642.16,456.98,8.81 646.37,446.63,8.75 647.92,435.44,8.69 648.45,419.28,8.60">
            <param key="origId" value="1170_-1"/>
        </lane>
        <lane id=":1162_0_2" index="2" disallow="pedestrian tram rail_urban rail rail_electric rail_fast ship" speed="17.88" length="54.26" width="3.50" shape="633.67,470.58,8.90 642.82,456.89,8.81 648.22,446.71,8.75 650.90,435.67,8.69 651.94,419.38,8.60">
            <param key="origId" value="1167_-1"/>
        </lane>
    </edge>
    <edge id=":1162_3" function="internal">
        <lane id=":1162_3_0" index="0" disallow="pedestrian tram rail_urban rail rail_electric rail_fast ship" speed="17.88" length="48.95" width="3.50" shape="650.84,468.29,9.57 651.94,419.38,8.60">
            <param key="origId" value="1181_-1"/>
        </lane>
        <lane id=":1162_3_1" index="1" disallow="pedestrian tram rail_urban rail rail_electric rail_fast ship" speed="17.88" length="48.95" width="3.75" shape="654.33,468.40,9.57 655.57,419.48,8.60">
            <param key="origId" value="1178_-1"/>
        </lane>
        <lane id=":1162_3_2" index="2" disallow="pedestrian tram rail_urban rail rail_electric rail_fast ship" speed="17.88" length="48.95" width="3.50" shape="657.83,468.52,9.57 659.19,419.58,8.60">
            <param key="origId" value="1184_-1"/>
        </lane>
    </edge>
    <edge id=":1187_0" function="internal">
        <lane id=":1187_0_0" index="0" disallow="pedestrian tram rail_urban rail rail_electric rail_fast ship" speed="17.88" length="19.67" width="3.50" shape="651.17,18.22 648.78,12.87 646.84,9.22 645.58,5.46 645.24,-0.23">
            <param key="origId" value="1191_-1"/>
        </lane>
    </edge>
    <edge id=":1187_1" function="internal">
        <lane id=":1187_1_0" index="0" disallow="all" speed="17.88" length="22.21" width="0.63" shape="638.53,21.79 639.18,-0.40">
            <param key="origId" value="1194_-5"/>
        </lane>
        <lane id=":1187_1_1" index="1" disallow="all" speed="17.88" length="22.21" width="0.50" shape="639.09,21.81 639.74,-0.38">
            <param key="origId" value="1194_-4"/>
        </lane>
        <lane id=":1187_1_2" index="2" disallow="pedestrian tram rail_urban rail rail_electric rail_fast ship" speed="17.88" length="22.21" width="3.50" shape="641.09,21.87 641.74,-0.33">
            <param key="origId" value="1194_-3"/>
        </lane>
        <lane id=":1187_1_3" index="3" disallow="pedestrian tram rail_urban rail rail_electric rail_fast ship" speed="17.88" length="22.21" width="3.50" shape="644.59,21.97 645.24,-0.23">
            <param key="origId" value="1194_-2"/>
        </lane>
        <lane id=":1187_1_4" index="4" disallow="all" speed="17.88" length="22.21" width="0.50" shape="646.59,22.03 647.24,-0.18">
            <param key="origId" value="1194_-1"/>
        </lane>
    </edge>
    <edge id=":12.begin_0" function="internal">
        <lane id=":12.begin_0_0" index="0" disallow="pedestrian tram rail_urban rail rail_electric rail_fast ship" speed="3.82" length="5.11" width="3.50" shape="0.73,974.02 -0.60,973.17 -1.05,972.30 -0.63,971.42 0.67,970.52"/>
    </edge>
    <edge id=":1212_0" function="internal">
        <lane id=":1212_0_0" index="0" allow="pedestrian" speed="9.96" length="22.56" width="2.00" shape="974.87,443.32 973.70,439.48 970.24,436.69 964.48,434.94 956.43,434.25">
            <param key="origId" value="1220_-2"/>
        </lane>
        <lane id=":1212_0_1" index="1" disallow="all" speed="10.30" length="24.59" width="0.63" shape="976.19,443.31 974.93,438.91 971.23,435.71 965.07,433.72 956.45,432.93">
            <param key="origId" value="1220_-1"/>
        </lane>
    </edge>
    <edge id=":1212_2" function="internal">
        <lane id=":1212_2_0" index="0" disallow="all" speed="17.88" length="35.47" width="0.50" shape="976.75,443.31 976.55,407.84">
            <param key="origId" value="1217_-4"/>
        </lane>
    </edge>
    <edge id=":1212_3" function="internal">
        <lane id=":1212_3_0" index="0" disallow="pedestrian tram rail_urban rail rail_electric rail_fast ship" speed="11.28" length="3.60" width="3.50" shape="978.75,443.30 977.85,439.81">
            <param key="origId" value="1222_-1"/>
        </lane>
    </edge>
    <edge id=":1212_4" function="internal">
        <lane id=":1212_4_0" index="0" disallow="pedestrian tram rail_urban rail rail_electric rail_fast ship" speed="17.88" length="35.47" width="3.50" shape="978.75,443.30 978.55,407.83">
            <param key="origId" value="1217_-3"/>
        </lane>
        <lane id=":1212_4_1" index="1" disallow="pedestrian tram rail_urban rail rail_electric rail_fast ship" speed="17.88" length="35.47" width="3.50" shape="982.25,443.28 982.05,407.81">
            <param key="origId" value="1217_-2"/>
        </lane>
        <lane id=":1212_4_2" index="2" disallow="pedestrian tram rail_urban rail rail_electric rail_fast ship" speed="17.88" length="35.47" width="3.50" shape="985.75,443.26 985.55,407.79">
            <param key="origId" value="1217_-1"/>
        </lane>
    </edge>
    <edge id=":1212_18" function="internal">
        <lane id=":1212_18_0" index="0" disallow="pedestrian tram rail_urban rail rail_electric rail_fast ship" speed="11.28" length="24.99" width="3.50" shape="977.85,439.81 977.33,437.80 973.15,433.81 966.21,431.33 956.50,430.37">
            <param key="origId" value="1222_-1"/>
        </lane>
    </edge>
    <edge id=":1212_7" function="internal">
        <lane id=":1212_7_0" index="0" allow="pedestrian" speed="17.88" length="35.47" width="2.00" shape="999.93,407.71 1000.13,443.18">
            <param key="origId" value="1216_6"/>
        </lane>
        <lane id=":1212_7_1" index="1" disallow="all" speed="17.88" length="35.47" width="0.63" shape="998.61,407.72 998.81,443.19">
            <param key="origId" value="1216_5"/>
        </lane>
        <lane id=":1212_7_2" index="2" disallow="all" speed="17.88" length="35.47" width="0.50" shape="998.05,407.72 998.25,443.19">
            <param key="origId" value="1216_4"/>
        </lane>
        <lane id=":1212_7_3" index="3" disallow="pedestrian tram rail_urban rail rail_electric rail_fast ship" speed="17.88" length="35.47" width="3.50" shape="996.05,407.73 996.25,443.20">
            <param key="origId" value="1216_3"/>
        </lane>
        <lane id=":1212_7_4" index="4" disallow="pedestrian tram rail_urban rail rail_electric rail_fast ship" speed="17.88" length="35.47" width="3.50" shape="992.55,407.75 992.75,443.22">
            <param key="origId" value="1216_2"/>
        </lane>
        <lane id=":1212_7_5" index="5" disallow="pedestrian tram rail_urban rail rail_electric rail_fast ship" speed="17.88" length="35.47" width="3.50" shape="989.05,407.77 989.25,443.24">
            <param key="origId" value="1216_1"/>
        </lane>
    </edge>
    <edge id=":1212_13" function="internal">
        <lane id=":1212_13_0" index="0" disallow="pedestrian tram rail_urban rail rail_electric rail_fast ship" speed="13.41" length="3.78" width="3.50" shape="989.05,407.77 988.20,411.45">
            <param key="origId" value="1223_1"/>
        </lane>
    </edge>
    <edge id=":1212_19" function="internal">
        <lane id=":1212_19_0" index="0" disallow="pedestrian tram rail_urban rail rail_electric rail_fast ship" speed="13.41" length="38.64" width="3.50" shape="988.20,411.45 987.06,416.35 980.98,422.40 970.82,425.90 956.57,426.87">
            <param key="origId" value="1223_1"/>
        </lane>
    </edge>
    <edge id=":1212_14" function="internal">
        <lane id=":1212_14_0" index="0" allow="pedestrian" speed="9.61" length="21.73" width="2.00" shape="956.77,415.99 964.62,415.61 970.22,414.12 973.57,411.54 974.67,407.85">
            <param key="origId" value="1226_2"/>
        </lane>
        <lane id=":1212_14_1" index="1" disallow="all" speed="9.96" length="23.84" width="0.63" shape="956.75,417.31 965.18,416.85 971.20,415.12 974.80,412.12 975.99,407.84">
            <param key="origId" value="1226_1"/>
        </lane>
        <lane id=":1212_14_2" index="2" disallow="pedestrian tram rail_urban rail rail_electric rail_fast ship" speed="11.44" length="30.56" width="3.50" shape="956.63,423.37 966.25,422.55 973.11,419.69 977.21,414.78 978.55,407.83">
            <param key="origId" value="1225_-1"/>
        </lane>
    </edge>
    <edge id=":1212_17" function="internal">
        <lane id=":1212_17_0" index="0" disallow="pedestrian tram rail_urban rail rail_electric rail_fast ship" speed="13.67" length="42.56" width="3.50" shape="956.63,423.37 970.86,424.84 981.04,428.64 987.17,434.77 989.25,443.24">
            <param key="origId" value="1218_-1"/>
        </lane>
    </edge>
    <edge id=":1228_0" function="internal">
        <lane id=":1228_0_0" index="0" disallow="all" speed="17.88" length="59.12" width="0.63" shape="916.08,697.59,6.00 898.39,698.64,6.13 885.96,702.16,6.23 875.24,708.61,6.33 862.69,718.47,6.45">
            <param key="origId" value="1230_-1"/>
        </lane>
        <lane id=":1228_0_1" index="1" disallow="pedestrian tram rail_urban rail rail_electric rail_fast ship" speed="17.88" length="63.05" width="3.75" shape="916.09,691.28,6.00 897.08,692.67,6.14 883.62,696.97,6.24 872.23,704.20,6.33 859.45,714.42,6.45">
            <param key="origId" value="1229_1"/>
        </lane>
    </edge>
    <edge id=":1228_2" function="internal">
        <lane id=":1228_2_0" index="0" disallow="pedestrian tram rail_urban rail rail_electric rail_fast ship" speed="17.88" length="72.73" width="3.50" shape="916.09,691.28,6.00 843.51,692.69,6.00">
            <param key="origId" value="1258_1"/>
        </lane>
        <lane id=":1228_2_1" index="1" disallow="pedestrian tram rail_urban rail rail_electric rail_fast ship" speed="17.88" length="72.73" width="3.50" shape="916.10,687.78,6.00 843.42,689.19,6.00">
            <param key="origId" value="1244_1"/>
        </lane>
        <lane id=":1228_2_2" index="2" disallow="pedestrian tram rail_urban rail rail_electric rail_fast ship" speed="17.88" length="72.73" width="3.25" shape="916.11,684.40,6.00 843.34,685.81,6.00">
            <param key="origId" value="1240_1"/>
        </lane>
        <lane id=":1228_2_3" index="3" disallow="pedestrian tram rail_urban rail rail_electric rail_fast ship" speed="17.88" length="72.73" width="3.00" shape="916.11,681.28,6.00 843.26,682.69,6.00">
            <param key="origId" value="1254_1"/>
        </lane>
    </edge>
    <edge id=":1264_0" function="internal">
        <lane id=":1264_0_0" index="0" disallow="all" speed="17.88" length="30.42" width="0.40" shape="1082.64,636.74 1113.02,638.37">
            <param key="origId" value="1267_1"/>
        </lane>
        <lane id=":1264_0_1" index="1" disallow="pedestrian tram rail_urban rail rail_electric rail_fast ship" speed="17.88" length="30.42" width="3.50" shape="1082.67,639.04 1113.04,640.67">
            <param key="origId" value="1265_-1"/>
        </lane>
        <lane id=":1264_0_2" index="2" disallow="pedestrian tram rail_urban rail rail_electric rail_fast ship" speed="17.88" length="30.42" width="3.50" shape="1082.71,642.54 1113.09,644.17">
            <param key="origId" value="1278_-1"/>
        </lane>
        <lane id=":1264_0_3" index="3" disallow="pedestrian tram rail_urban rail rail_electric rail_fast ship" speed="17.88" length="30.42" width="3.50" shape="1082.75,646.04 1113.13,647.67">
            <param key="origId" value="1280_-1"/>
        </lane>
        <lane id=":1264_0_4" index="4" disallow="pedestrian tram rail_urban rail rail_electric rail_fast ship" speed="17.88" length="30.42" width="3.50" shape="1082.79,649.54 1113.17,651.17">
            <param key="origId" value="1275_-1"/>
        </lane>
        <lane id=":1264_0_5" index="5" disallow="pedestrian tram rail_urban rail rail_electric rail_fast ship" speed="17.88" length="30.42" width="3.50" shape="1082.83,653.04 1113.17,651.17"/>
    </edge>
    <edge id=":1282_0" function="internal">
        <lane id=":1282_0_0" index="0" disallow="all" speed="17.88" length="32.17" width="0.63" shape="652.71,50.87,1.03 653.09,41.33,0.72 653.14,34.71,0.51 652.07,28.28,0.30 649.13,19.29">
            <param key="origId" value="1283_-3"/>
        </lane>
        <lane id=":1282_0_1" index="1" disallow="all" speed="17.88" length="32.39" width="0.50" shape="653.36,50.89,1.03 653.73,41.28,0.72 653.74,34.62,0.51 652.64,28.14,0.30 649.66,19.09">
            <param key="origId" value="1283_-2"/>
        </lane>
        <lane id=":1282_0_2" index="2" disallow="pedestrian tram rail_urban rail rail_electric rail_fast ship" speed="17.88" length="33.05" width="2.93" shape="655.15,50.93,1.03 655.51,41.13,0.72 655.49,34.33,0.51 654.32,27.73,0.30 651.27,18.49">
            <param key="origId" value="1283_-1"/>
        </lane>
    </edge>
    <edge id=":1282_3" function="internal">
        <lane id=":1282_3_0" index="0" disallow="pedestrian tram rail_urban rail rail_electric rail_fast ship" speed="17.88" length="33.78" width="3.50" shape="658.39,51.01,1.03 659.23,17.25,0.34">
            <param key="origId" value="1286_-6"/>
        </lane>
        <lane id=":1282_3_1" index="1" disallow="pedestrian tram rail_urban rail rail_electric rail_fast ship" speed="17.88" length="33.78" width="3.50" shape="661.89,51.10,1.03 662.73,17.34,0.34">
            <param key="origId" value="1286_-5"/>
        </lane>
        <lane id=":1282_3_2" index="2" disallow="pedestrian tram rail_urban rail rail_electric rail_fast ship" speed="17.88" length="33.78" width="3.75" shape="665.52,51.19,1.03 666.36,17.43,0.34">
            <param key="origId" value="1286_-4"/>
        </lane>
        <lane id=":1282_3_3" index="3" disallow="pedestrian tram rail_urban rail rail_electric rail_fast ship" speed="17.88" length="33.78" width="3.50" shape="669.14,51.28,1.03 669.98,17.52,0.34">
            <param key="origId" value="1286_-3"/>
        </lane>
        <lane id=":1282_3_4" index="4" disallow="all" speed="17.88" length="33.78" width="0.50" shape="671.14,51.33,1.03 671.98,17.57,0.34">
            <param key="origId" value="1286_-2"/>
        </lane>
        <lane id=":1282_3_5" index="5" disallow="all" speed="17.88" length="33.78" width="0.64" shape="671.71,51.34,1.03 672.55,17.58,0.34">
            <param key="origId" value="1286_-1"/>
        </lane>
    </edge>
    <edge id=":1292_0" function="internal">
        <lane id=":1292_0_0" index="0" disallow="all" speed="17.88" length="47.29" width="0.63" shape="109.55,734.49 62.26,735.32">
            <param key="origId" value="1300_7"/>
        </lane>
        <lane id=":1292_0_1" index="1" disallow="all" speed="17.88" length="47.29" width="0.50" shape="109.54,733.92 62.25,734.76">
            <param key="origId" value="1300_6"/>
        </lane>
        <lane id=":1292_0_2" index="2" disallow="pedestrian tram rail_urban rail rail_electric rail_fast ship" speed="17.88" length="47.29" width="3.50" shape="109.50,731.92 62.21,732.76">
            <param key="origId" value="1300_5"/>
        </lane>