<?xml version='1.0' encoding='UTF-8'?>
<!-- generated on 2024-11-14 16:20:27 by Eclipse SUMO netconvert Version 1.21.0
<netconvertConfiguration xmlns:xsi="http://www.w3.org/2001/XMLSchema-instance" xsi:noNamespaceSchemaLocation="http://sumo.dlr.de/xsd/netconvertConfiguration.xsd">

    <input>
        <type-files value="D:\carla\Co-Simulation\Sumo\util\data/opendrive_netconvert.typ.xml"/>
        <opendrive-files value="tflj_sign.xodr"/>
    </input>

    <output>
        <output-file value="C:\Users\Lenovo\AppData\Local\Temp\tmph_wp4wb1\tflj_sign.net.xml"/>
        <output.original-names value="true"/>
    </output>

    <processing>
        <geometry.remove value="true"/>
        <geometry.min-radius.fix value="true"/>
    </processing>

    <tls_building>
        <tls.discard-loaded value="true"/>
    </tls_building>

    <junctions>
        <no-turnarounds.except-deadend value="true"/>
    </junctions>

    <formats>
        <opendrive.import-all-lanes value="true"/>
        <opendrive.curve-resolution value="1"/>
    </formats>

</netconvertConfiguration>
-->
<net xmlns:xsi="http://www.w3.org/2001/XMLSchema-instance" version="1.20" junctionCornerDetail="5" rectangularLaneCut="true" limitTurnSpeed="5.50" xsi:noNamespaceSchemaLocation="http://sumo.dlr.de/xsd/net_file.xsd">
  <location netOffset="-3801.68,555.44" convBoundary="0.00,0.00,1312.46,1364.22" origBoundary="0.000000,0.000000,0.000000,0.000000" projParameter="+proj=tmerc +lat_0=30.5993182797386 +lon_0=104.0186223219355 +k=1 +x_0=0 +y_0=0 +datum=WGS84 +units=m  +vunits=m +no_defs "/>
  <edge id=":1042_0" function="internal">
    <lane id=":1042_0_0" index="0" disallow="all" speed="7.34" length="12.84" width="0.63" shape="978.62,728.07 978.05,724.89 976.40,722.65 973.68,721.36 969.88,721.03">
      <param key="origId" value="1068_1"/>
    </lane>
  </edge>
  <edge id=":1042_1" function="internal">
    <lane id=":1042_1_0" index="0" disallow="pedestrian tram rail_urban rail rail_electric rail_fast ship" speed="9.67" length="21.23" width="3.50" shape="981.18,728.05 980.42,721.53 978.25,716.90 974.68,714.16 969.70,713.31">
      <param key="origId" value="1071_-1"/>
    </lane>
  </edge>
  <edge id=":1042_2" function="internal">
    <lane id=":1042_2_0" index="0" disallow="pedestrian tram rail_urban rail rail_electric rail_fast ship" speed="17.88" length="40.30" width="3.50" shape="981.18,728.05 979.83,687.78,0.15">
      <param key="origId" value="1052_-1"/>
    </lane>
  </edge>
  <edge id=":1042_3" function="internal">
    <lane id=":1042_3_0" index="0" disallow="pedestrian tram rail_urban rail rail_electric rail_fast ship" speed="10.90" length="27.31" width="3.50" shape="984.68,728.02 983.68,719.74 980.84,713.87 976.16,710.39 969.63,709.31">
      <param key="origId" value="1074_-1"/>
    </lane>
  </edge>
  <edge id=":1042_4" function="internal">
    <lane id=":1042_4_0" index="0" disallow="pedestrian tram rail_urban rail rail_electric rail_fast ship" speed="17.88" length="40.30" width="3.50" shape="984.68,728.02 983.33,687.75,0.15">
      <param key="origId" value="1050_-1"/>
    </lane>
    <lane id=":1042_4_1" index="1" disallow="pedestrian tram rail_urban rail rail_electric rail_fast ship" speed="17.88" length="40.30" width="3.50" shape="988.18,727.99 986.83,687.72,0.15">
      <param key="origId" value="1058_-1"/>
    </lane>
  </edge>
  <edge id=":1042_6" function="internal">
    <lane id=":1042_6_0" index="0" disallow="all" speed="6.62" length="10.19" width="0.64" shape="1005.00,719.39 1003.33,719.94 1002.15,721.54 1001.46,724.19 1001.25,727.89">
      <param key="origId" value="1092_1"/>
    </lane>
    <lane id=":1042_6_1" index="1" disallow="pedestrian tram rail_urban rail rail_electric rail_fast ship" speed="8.05" length="14.22" width="3.50" shape="1004.96,716.82 1002.18,717.55 1000.21,719.64 999.04,723.09 998.68,727.91">
      <param key="origId" value="1096_-1"/>
    </lane>
  </edge>
  <edge id=":1042_8" function="internal">
    <lane id=":1042_8_0" index="0" disallow="pedestrian tram rail_urban rail rail_electric rail_fast ship" speed="17.88" length="35.60" width="3.50" shape="1004.96,716.82 994.47,716.34 987.33,715.05 980.19,713.77 969.70,713.31">
      <param key="origId" value="1086_-1"/>
    </lane>
    <lane id=":1042_8_1" index="1" disallow="pedestrian tram rail_urban rail rail_electric rail_fast ship" speed="17.88" length="35.60" width="3.50" shape="1004.91,713.32 994.41,712.76 987.27,711.30 980.14,709.85 969.63,709.31">
      <param key="origId" value="1089_-1"/>
    </lane>
    <lane id=":1042_8_2" index="2" disallow="pedestrian tram rail_urban rail rail_electric rail_fast ship" speed="17.88" length="35.60" width="3.50" shape="1004.87,709.82 994.36,709.26 987.22,707.80 980.08,706.35 969.57,705.81">
      <param key="origId" value="1083_-1"/>
    </lane>
    <lane id=":1042_8_3" index="3" disallow="pedestrian tram rail_urban rail rail_electric rail_fast ship" speed="17.88" length="35.60" width="3.50" shape="1004.82,706.32 994.30,705.76 987.17,704.30 980.03,702.85 969.52,702.31">
      <param key="origId" value="1077_-1"/>
    </lane>
    <lane id=":1042_8_4" index="4" disallow="pedestrian tram rail_urban rail rail_electric rail_fast ship" speed="17.88" length="35.60" width="3.50" shape="1004.77,702.82 994.25,702.26 987.11,700.80 979.97,699.35 969.46,698.81">
      <param key="origId" value="1080_-1"/>
    </lane>
  </edge>
  <edge id=":1042_13" function="internal">
    <lane id=":1042_13_0" index="0" disallow="pedestrian tram rail_urban rail rail_electric rail_fast ship" speed="17.88" length="40.30" width="3.50" shape="997.33,687.63,0.15 998.68,727.91">
      <param key="origId" value="1054_1"/>
    </lane>
    <lane id=":1042_13_1" index="1" disallow="pedestrian tram rail_urban rail rail_electric rail_fast ship" speed="17.88" length="40.30" width="3.50" shape="993.83,687.66,0.15 995.18,727.94">
      <param key="origId" value="1056_1"/>
    </lane>
    <lane id=":1042_13_2" index="2" disallow="pedestrian tram rail_urban rail rail_electric rail_fast ship" speed="17.88" length="40.30" width="3.50" shape="990.33,687.69,0.15 991.68,727.96">
      <param key="origId" value="1060_1"/>
    </lane>
  </edge>
  <edge id=":1042_16" function="internal">
    <lane id=":1042_16_0" index="0" disallow="pedestrian tram rail_urban rail rail_electric rail_fast ship" speed="10.75" length="26.18" width="3.50" shape="990.33,687.69,0.15 989.06,692.43,0.12 985.16,695.86,0.09 978.62,697.99,0.05 969.46,698.81">
      <param key="origId" value="1048_1"/>
    </lane>
  </edge>
  <edge id=":1099_0" function="internal">
    <lane id=":1099_0_0" index="0" disallow="all" speed="17.88" length="50.51" width="0.63" shape="728.90,662.11,6.00 741.98,660.54,6.15 753.69,656.49,6.28 764.02,649.94,6.42 772.97,640.92,6.56">
      <param key="origId" value="1121_-1"/>
    </lane>
    <lane id=":1099_0_1" index="1" disallow="pedestrian tram rail_urban rail rail_electric rail_fast ship" speed="17.88" length="53.57" width="3.75" shape="728.95,664.36,6.00 743.86,662.79,6.16 756.78,658.85,6.30 767.70,652.54,6.43 776.63,643.85,6.56">
      <param key="origId" value="1115_-1"/>
    </lane>
  </edge>
  <edge id=":1099_2" function="internal">
    <lane id=":1099_2_0" index="0" disallow="pedestrian tram rail_urban rail rail_electric rail_fast ship" speed="17.88" length="61.88" width="3.00" shape="729.03,667.73,6.00 790.89,666.85,6.37">
      <param key="origId" value="1100_-1"/>
    </lane>
    <lane id=":1099_2_1" index="1" disallow="pedestrian tram rail_urban rail rail_electric rail_fast ship" speed="17.88" length="61.88" width="3.25" shape="729.12,671.35,6.00 790.97,669.97,6.37">
      <param key="origId" value="1102_-1"/>
    </lane>
    <lane id=":1099_2_2" index="2" disallow="pedestrian tram rail_urban rail rail_electric rail_fast ship" speed="17.88" length="61.88" width="3.50" shape="729.20,674.85,6.00 791.07,673.34,6.37">
      <param key="origId" value="1104_-1"/>
    </lane>
    <lane id=":1099_2_3" index="3" disallow="pedestrian tram rail_urban rail rail_electric rail_fast ship" speed="17.88" length="61.88" width="3.50" shape="729.28,678.23,6.00 791.16,676.84,6.37">
      <param key="origId" value="1111_-1"/>
    </lane>
  </edge>
  <edge id=":1127_0" function="internal">
    <lane id=":1127_0_0" index="0" disallow="all" speed="17.88" length="54.26" width="0.64" shape="629.36,467.67,8.96 637.87,454.74,9.00 642.71,445.07,9.03 645.00,434.59,9.06 645.87,419.21,9.10">
      <param key="origId" value="1129_-1"/>
    </lane>
    <lane id=":1127_0_1" index="1" disallow="pedestrian tram rail_urban rail rail_electric rail_fast ship" speed="17.88" length="54.26" width="3.50" shape="633.66,470.57,8.96 642.16,456.97,9.00 646.37,446.63,9.03 647.91,435.44,9.06 648.44,419.28,9.10">
      <param key="origId" value="1135_-1"/>
    </lane>
    <lane id=":1127_0_2" index="2" disallow="pedestrian tram rail_urban rail rail_electric rail_fast ship" speed="17.88" length="54.26" width="3.50" shape="633.66,470.57,8.96 642.82,456.89,9.00 648.21,446.71,9.03 650.90,435.67,9.06 651.94,419.38,9.10">
      <param key="origId" value="1132_-1"/>
    </lane>
  </edge>
  <edge id=":1127_3" function="internal">
    <lane id=":1127_3_0" index="0" disallow="pedestrian tram rail_urban rail rail_electric rail_fast ship" speed="17.88" length="48.94" width="3.50" shape="650.83,468.29,9.34 651.94,419.38,9.10">
      <param key="origId" value="1146_-1"/>
    </lane>
    <lane id=":1127_3_1" index="1" disallow="pedestrian tram rail_urban rail rail_electric rail_fast ship" speed="17.88" length="48.94" width="3.75" shape="654.33,468.40,9.34 655.56,419.48,9.10">
      <param key="origId" value="1143_-1"/>
    </lane>
    <lane id=":1127_3_2" index="2" disallow="pedestrian tram rail_urban rail rail_electric rail_fast ship" speed="17.88" length="48.94" width="3.50" shape="657.83,468.52,9.34 659.19,419.58,9.10">
      <param key="origId" value="1149_-1"/>
    </lane>
  </edge>
  <edge id=":114_0" function="internal">
    <lane id=":114_0_0" index="0" disallow="all" speed="17.88" length="40.09" width="0.64" shape="301.59,244.93 300.56,285.00">
      <param key="origId" value="128_5"/>
    </lane>
    <lane id=":114_0_1" index="1" disallow="all" speed="17.88" length="40.09" width="0.50" shape="301.03,244.91 299.99,284.99">
      <param key="origId" value="128_4"/>
    </lane>
    <lane id=":114_0_2" index="2" disallow="pedestrian tram rail_urban rail rail_electric rail_fast ship" speed="17.88" length="40.09" width="3.50" shape="299.03,244.86 298.00,284.94">
      <param key="origId" value="128_3"/>
    </lane>
    <lane id=":114_0_3" index="3" disallow="pedestrian tram rail_urban rail rail_electric rail_fast ship" speed="17.88" length="40.09" width="3.50" shape="295.53,244.77 294.50,284.85">
      <param key="origId" value="128_2"/>
    </lane>
    <lane id=":114_0_4" index="4" disallow="pedestrian tram rail_urban rail rail_electric rail_fast ship" speed="17.88" length="40.09" width="3.50" shape="292.03,244.68 291.00,284.76">
      <param key="origId" value="128_1"/>
    </lane>
  </edge>
  <edge id=":114_5" function="internal">
    <lane id=":114_5_0" index="0" disallow="pedestrian tram rail_urban rail rail_electric rail_fast ship" speed="13.03" length="6.39" width="3.50" shape="292.03,244.68 291.01,250.99">
      <param key="origId" value="136_1"/>
    </lane>
  </edge>
  <edge id=":114_17" function="internal">
    <lane id=":114_17_0" index="0" disallow="pedestrian tram rail_urban rail rail_electric rail_fast ship" speed="13.03" length="31.65" width="3.50" shape="291.01,250.99 290.34,255.14 285.88,262.66 278.64,267.25 268.64,268.90">
      <param key="origId" value="136_1"/>
    </lane>
  </edge>
  <edge id=":114_6" function="internal">
    <lane id=":114_6_0" index="0" disallow="all" speed="8.79" length="17.60" width="0.63" shape="268.44,255.83 272.93,255.05 276.19,252.88 278.20,249.31 278.97,244.34">
      <param key="origId" value="139_-1"/>
    </lane>
    <lane id=":114_6_1" index="1" disallow="pedestrian tram rail_urban rail rail_electric rail_fast ship" speed="9.93" length="21.62" width="3.50" shape="268.48,258.40 274.06,257.45 278.09,254.80 280.58,250.46 281.53,244.41">
      <param key="origId" value="130_-1"/>
    </lane>
    <lane id=":114_6_2" index="2" disallow="pedestrian tram rail_urban rail rail_electric rail_fast ship" speed="11.06" length="27.09" width="3.50" shape="268.53,261.90 275.58,260.72 280.69,257.42 283.83,252.02 285.03,244.50">
      <param key="origId" value="133_-1"/>
    </lane>
  </edge>
  <edge id=":114_9" function="internal">
    <lane id=":114_9_0" index="0" disallow="pedestrian tram rail_urban rail rail_electric rail_fast ship" speed="11.97" length="34.03" width="3.50" shape="268.59,265.40 278.58,266.47 285.65,270.06 289.79,276.15 291.00,284.76">
      <param key="origId" value="115_-1"/>
    </lane>
  </edge>
  <edge id=":114_10" function="internal">
    <lane id=":114_10_0" index="0" disallow="all" speed="7.16" length="12.39" width="0.63" shape="277.93,284.42 277.42,281.76 275.73,279.88 272.85,278.78 268.80,278.47">
      <param key="origId" value="117_-1"/>
    </lane>
  </edge>
  <edge id=":114_11" function="internal">
    <lane id=":114_11_0" index="0" disallow="all" speed="17.88" length="40.09" width="0.50" shape="278.50,284.44 279.53,244.36">
      <param key="origId" value="129_-4"/>
    </lane>
  </edge>
  <edge id=":114_12" function="internal">
    <lane id=":114_12_0" index="0" disallow="pedestrian tram rail_urban rail rail_electric rail_fast ship" speed="8.52" length="3.88" width="3.50" shape="280.50,284.49 279.85,280.66">
      <param key="origId" value="121_-1"/>
    </lane>
  </edge>
  <edge id=":114_13" function="internal">
    <lane id=":114_13_0" index="0" disallow="pedestrian tram rail_urban rail rail_electric rail_fast ship" speed="17.88" length="40.09" width="3.50" shape="280.50,284.49 281.53,244.41">
      <param key="origId" value="129_-3"/>
    </lane>
  </edge>
  <edge id=":114_14" function="internal">
    <lane id=":114_14_0" index="0" disallow="pedestrian tram rail_urban rail rail_electric rail_fast ship" speed="9.80" length="4.86" width="3.50" shape="284.00,284.58 283.26,279.77">
      <param key="origId" value="123_-1"/>
    </lane>
  </edge>
  <edge id=":114_15" function="internal">
    <lane id=":114_15_0" index="0" disallow="pedestrian tram rail_urban rail rail_electric rail_fast ship" speed="17.88" length="40.09" width="3.50" shape="284.00,284.58 285.03,244.50">
      <param key="origId" value="129_-2"/>
    </lane>
    <lane id=":114_15_1" index="1" disallow="pedestrian tram rail_urban rail rail_electric rail_fast ship" speed="17.88" length="40.09" width="3.50" shape="287.50,284.67 288.53,244.59">
      <param key="origId" value="129_-1"/>
    </lane>
  </edge>
  <edge id=":114_18" function="internal">
    <lane id=":114_18_0" index="0" disallow="pedestrian tram rail_urban rail rail_electric rail_fast ship" speed="8.52" length="12.74" width="3.50" shape="279.85,280.66 277.68,277.95 273.98,276.36 268.76,275.90">
      <param key="origId" value="121_-1"/>
    </lane>
  </edge>
  <edge id=":114_19" function="internal">
    <lane id=":114_19_0" index="0" disallow="pedestrian tram rail_urban rail rail_electric rail_fast ship" speed="9.80" length="17.56" width="3.50" shape="283.26,279.77 283.16,279.16 280.33,275.32 275.51,273.07 268.70,272.40">
      <param key="origId" value="123_-1"/>
    </lane>
  </edge>
  <edge id=":1152_0" function="internal">
    <lane id=":1152_0_0" index="0" disallow="pedestrian tram rail_urban rail rail_electric rail_fast ship" speed="17.88" length="19.98" width="3.50" shape="651.16,18.19 648.81,12.71 646.87,9.00 645.59,5.17 645.25,-0.61">
      <param key="origId" value="1156_-1"/>
    </lane>
  </edge>
  <edge id=":1152_1" function="internal">
    <lane id=":1152_1_0" index="0" disallow="all" speed="17.88" length="22.60" width="0.63" shape="638.52,21.79 639.19,-0.79">
      <param key="origId" value="1159_-5"/>
    </lane>
    <lane id=":1152_1_1" index="1" disallow="all" speed="17.88" length="22.60" width="0.50" shape="639.08,21.81 639.75,-0.78">
      <param key="origId" value="1159_-4"/>
    </lane>
    <lane id=":1152_1_2" index="2" disallow="pedestrian tram rail_urban rail rail_electric rail_fast ship" speed="17.88" length="22.60" width="3.50" shape="641.08,21.87 641.75,-0.72">
      <param key="origId" value="1159_-3"/>
    </lane>
    <lane id=":1152_1_3" index="3" disallow="pedestrian tram rail_urban rail rail_electric rail_fast ship" speed="17.88" length="22.60" width="3.50" shape="644.58,21.97 645.25,-0.61">
      <param key="origId" value="1159_-2"/>
    </lane>
    <lane id=":1152_1_4" index="4" disallow="all" speed="17.88" length="22.60" width="0.50" shape="646.58,22.03 647.25,-0.55">
      <param key="origId" value="1159_-1"/>
    </lane>
  </edge>
  <edge id=":1177_0" function="internal">
    <lane id=":1177_0_0" index="0" allow="pedestrian" speed="9.96" length="22.54" width="2.00" shape="974.86,443.31 973.69,439.48 970.23,436.69 964.48,434.95 956.43,434.26">
      <param key="origId" value="1185_-2"/>
    </lane>
    <lane id=":1177_0_1" index="1" disallow="all" speed="10.30" length="24.58" width="0.63" shape="976.18,443.31 974.93,438.91 971.22,435.71 965.06,433.72 956.45,432.94">
      <param key="origId" value="1185_-1"/>
    </lane>
  </edge>
  <edge id=":1177_2" function="internal">
    <lane id=":1177_2_0" index="0" disallow="all" speed="17.88" length="35.47" width="0.50" shape="976.75,443.30 976.55,407.84">
      <param key="origId" value="1182_-4"/>
    </lane>
  </edge>
  <edge id=":1177_3" function="internal">
    <lane id=":1177_3_0" index="0" disallow="pedestrian tram rail_urban rail rail_electric rail_fast ship" speed="11.28" length="3.59" width="3.50" shape="978.75,443.29 977.85,439.81">
      <param key="origId" value="1187_-1"/>
    </lane>
  </edge>
  <edge id=":1177_4" function="internal">
    <lane id=":1177_4_0" index="0" disallow="pedestrian tram rail_urban rail rail_electric rail_fast ship" speed="17.88" length="35.47" width="3.50" shape="978.75,443.29 978.55,407.82">
      <param key="origId" value="1182_-3"/>
    </lane>
    <lane id=":1177_4_1" index="1" disallow="pedestrian tram rail_urban rail rail_electric rail_fast ship" speed="17.88" length="35.47" width="3.50" shape="982.25,443.27 982.05,407.81">
      <param key="origId" value="1182_-2"/>
    </lane>
    <lane id=":1177_4_2" index="2" disallow="pedestrian tram rail_urban rail rail_electric rail_fast ship" speed="17.88" length="35.47" width="3.50" shape="985.75,443.26 985.55,407.79">
      <param key="origId" value="1182_-1"/>
    </lane>
  </edge>
  <edge id=":1177_18" function="internal">
    <lane id=":1177_18_0" index="0" disallow="pedestrian tram rail_urban rail rail_electric rail_fast ship" speed="11.28" length="24.98" width="3.50" shape="977.85,439.81 977.33,437.79 973.15,433.81 966.21,431.33 956.50,430.37">
      <param key="origId" value="1187_-1"/>
    </lane>
  </edge>
  <edge id=":1177_7" function="internal">
    <lane id=":1177_7_0" index="0" allow="pedestrian" speed="17.88" length="35.47" width="2.00" shape="999.94,407.71 1000.13,443.18">
      <param key="origId" value="1181_6"/>
    </lane>
    <lane id=":1177_7_1" index="1" disallow="all" speed="17.88" length="35.47" width="0.63" shape="998.62,407.71 998.81,443.18">
      <param key="origId" value="1181_5"/>
    </lane>
    <lane id=":1177_7_2" index="2" disallow="all" speed="17.88" length="35.47" width="0.50" shape="998.05,407.72 998.25,443.19">
      <param key="origId" value="1181_4"/>
    </lane>
    <lane id=":1177_7_3" index="3" disallow="pedestrian tram rail_urban rail rail_electric rail_fast ship" speed="17.88" length="35.47" width="3.50" shape="996.05,407.73 996.25,443.20">
      <param key="origId" value="1181_3"/>
    </lane>
    <lane id=":1177_7_4" index="4" disallow="pedestrian tram rail_urban rail rail_electric rail_fast ship" speed="17.88" length="35.47" width="3.50" shape="992.55,407.75 992.75,443.22">
      <param key="origId" value="1181_2"/>
    </lane>
    <lane id=":1177_7_5" index="5" disallow="pedestrian tram rail_urban rail rail_electric rail_fast ship" speed="17.88" length="35.47" width="3.50" shape="989.05,407.77 989.25,443.24">
      <param key="origId" value="1181_1"/>
    </lane>
  </edge>
  <edge id=":1177_13" function="internal">
    <lane id=":1177_13_0" index="0" disallow="pedestrian tram rail_urban rail rail_electric rail_fast ship" speed="13.41" length="3.78" width="3.50" shape="989.05,407.77 988.20,411.45">
      <param key="origId" value="1188_1"/>
    </lane>
  </edge>
  <edge id=":1177_19" function="internal">
    <lane id=":1177_19_0" index="0" disallow="pedestrian tram rail_urban rail rail_electric rail_fast ship" speed="13.41" length="38.64" width="3.50" shape="988.20,411.45 987.06,416.35 980.99,422.40 970.82,425.91 956.57,426.87">
      <param key="origId" value="1188_1"/>
    </lane>
  </edge>
  <edge id=":1177_14" function="internal">
    <lane id=":1177_14_0" index="0" allow="pedestrian" speed="9.61" length="21.73" width="2.00" shape="956.77,415.99 964.62,415.61 970.22,414.12 973.57,411.53 974.67,407.85">
      <param key="origId" value="1191_2"/>
    </lane>
    <lane id=":1177_14_1" index="1" disallow="all" speed="9.96" length="23.84" width="0.63" shape="956.75,417.31 965.18,416.85 971.20,415.12 974.80,412.12 975.99,407.84">
      <param key="origId" value="1191_1"/>
    </lane>
    <lane id=":1177_14_2" index="2" disallow="pedestrian tram rail_urban rail rail_electric rail_fast ship" speed="11.44" length="30.57" width="3.50" shape="956.63,423.37 966.26,422.55 973.12,419.69 977.22,414.78 978.55,407.82">
      <param key="origId" value="1190_-1"/>
    </lane>
  </edge>
  <edge id=":1177_17" function="internal">
    <lane id=":1177_17_0" index="0" disallow="pedestrian tram rail_urban rail rail_electric rail_fast ship" speed="13.67" length="42.55" width="3.50" shape="956.63,423.37 970.86,424.84 981.04,428.64 987.17,434.77 989.25,443.24">
      <param key="origId" value="1183_-1"/>
    </lane>
  </edge>
  <edge id=":1193_0" function="internal">
    <lane id=":1193_0_0" index="0" disallow="all" speed="17.88" length="59.14" width="0.63" shape="916.08,697.60,6.72 898.39,698.68,6.64 885.98,702.26,6.58 875.25,708.74,6.52 862.64,718.52,6.45">
      <param key="origId" value="1195_-1"/>
    </lane>
    <lane id=":1193_0_1" index="1" disallow="pedestrian tram rail_urban rail rail_electric rail_fast ship" speed="17.88" length="63.03" width="3.75" shape="916.09,691.28,6.72 897.10,692.71,6.64 883.66,697.05,6.58 872.28,704.30,6.52 859.43,714.44,6.45">
      <param key="origId" value="1194_1"/>
    </lane>
  </edge>
  <edge id=":1193_2" function="internal">
    <lane id=":1193_2_0" index="0" disallow="pedestrian tram rail_urban rail rail_electric rail_fast ship" speed="17.88" length="72.73" width="3.50" shape="916.09,691.28,6.72 843.51,692.69,7.29">
      <param key="origId" value="1223_1"/>
    </lane>
    <lane id=":1193_2_1" index="1" disallow="pedestrian tram rail_urban rail rail_electric rail_fast ship" speed="17.88" length="72.73" width="3.50" shape="916.10,687.78,6.72 843.43,689.19,7.29">
      <param key="origId" value="1209_1"/>
    </lane>
    <lane id=":1193_2_2" index="2" disallow="pedestrian tram rail_urban rail rail_electric rail_fast ship" speed="17.88" length="72.73" width="3.25" shape="916.11,684.41,6.72 843.34,685.82,7.29">
      <param key="origId" value="1205_1"/>
    </lane>
    <lane id=":1193_2_3" index="3" disallow="pedestrian tram rail_urban rail rail_electric rail_fast ship" speed="17.88" length="72.73" width="3.00" shape="916.11,681.28,6.72 843.27,682.69,7.29">
      <param key="origId" value="1219_1"/>
    </lane>
  </edge>
  <edge id=":12.begin_0" function="internal">
    <lane id=":12.begin_0_0" index="0" disallow="pedestrian tram rail_urban rail rail_electric rail_fast ship" speed="3.82" length="5.11" width="3.50" shape="0.73,974.02 -0.60,973.17 -1.05,972.30 -0.63,971.42 0.67,970.52"/>
  </edge>
  <edge id=":1229_0" function="internal">
    <lane id=":1229_0_0" index="0" disallow="all" speed="17.88" length="30.41" width="0.40" shape="1082.64,636.74 1113.01,638.37">
      <param key="origId" value="1232_1"/>
    </lane>
    <lane id=":1229_0_1" index="1" disallow="pedestrian tram rail_urban rail rail_electric rail_fast ship" speed="17.88" length="30.41" width="3.50" shape="1082.67,639.04 1113.04,640.67">
      <param key="origId" value="1230_-1"/>
    </lane>
    <lane id=":1229_0_2" index="2" disallow="pedestrian tram rail_urban rail rail_electric rail_fast ship" speed="17.88" length="30.41" width="3.50" shape="1082.71,642.54 1113.08,644.17">
      <param key="origId" value="1243_-1"/>
    </lane>
    <lane id=":1229_0_3" index="3" disallow="pedestrian tram rail_urban rail rail_electric rail_fast ship" speed="17.88" length="30.41" width="3.50" shape="1082.75,646.04 1113.12,647.67">
      <param key="origId" value="1245_-1"/>
    </lane>
    <lane id=":1229_0_4" index="4" disallow="pedestrian tram rail_urban rail rail_electric rail_fast ship" speed="17.88" length="30.41" width="3.50" shape="1082.79,649.54 1113.16,651.17">
      <param key="origId" value="1240_-1"/>
    </lane>
  </edge>
  <edge id=":1247_0" function="internal">
    <lane id=":1247_0_0" index="0" disallow="all" speed="17.88" length="32.21" width="0.63" shape="652.72,50.87,1.17 653.06,41.32,0.82 653.04,34.71,0.58 651.96,28.26,0.34 649.10,19.22">
      <param key="origId" value="1248_-3"/>
    </lane>
    <lane id=":1247_0_1" index="1" disallow="all" speed="17.88" length="32.42" width="0.50" shape="653.36,50.88,1.17 653.70,41.27,0.82 653.65,34.62,0.58 652.53,28.13,0.34 649.64,19.03">
      <param key="origId" value="1248_-2"/>
    </lane>
    <lane id=":1247_0_2" index="2" disallow="pedestrian tram rail_urban rail rail_electric rail_fast ship" speed="17.88" length="33.06" width="2.93" shape="655.15,50.93,1.17 655.48,41.13,0.82 655.40,34.35,0.58 654.22,27.74,0.35 651.26,18.46">
      <param key="origId" value="1248_-1"/>
    </lane>
  </edge>
  <edge id=":1247_3" function="internal">
    <lane id=":1247_3_0" index="0" disallow="pedestrian tram rail_urban rail rail_electric rail_fast ship" speed="17.88" length="33.78" width="3.50" shape="658.40,51.01,1.17 659.24,17.25,0.23">
      <param key="origId" value="1251_-6"/>
    </lane>
    <lane id=":1247_3_1" index="1" disallow="pedestrian tram rail_urban rail rail_electric rail_fast ship" speed="17.88" length="33.78" width="3.50" shape="661.90,51.10,1.17 662.74,17.34,0.23">
      <param key="origId" value="1251_-5"/>
    </lane>
    <lane id=":1247_3_2" index="2" disallow="pedestrian tram rail_urban rail rail_electric rail_fast ship" speed="17.88" length="33.78" width="3.75" shape="665.53,51.19,1.17 666.36,17.43,0.23">
      <param key="origId" value="1251_-4"/>
    </lane>
    <lane id=":1247_3_3" index="3" disallow="pedestrian tram rail_urban rail rail_electric rail_fast ship" speed="17.88" length="33.78" width="3.50" shape="669.15,51.28,1.17 669.99,17.52,0.23">
      <param key="origId" value="1251_-3"/>
    </lane>
    <lane id=":1247_3_4" index="4" disallow="all" speed="17.88" length="33.78" width="0.50" shape="671.15,51.33,1.17 671.99,17.57,0.23">
      <param key="origId" value="1251_-2"/>
    </lane>
    <lane id=":1247_3_5" index="5" disallow="all" speed="17.88" length="33.78" width="0.64" shape="671.72,51.34,1.17 672.55,17.58,0.23">
      <param key="origId" value="1251_-1"/>
    </lane>
  </edge>
  <edge id=":1257_0" function="internal">
    <lane id=":1257_0_0" index="0" disallow="all" speed="17.88" length="47.29" width="0.63" shape="109.55,734.49 62.26,735.33">
      <param key="origId" value="1265_7"/>
    </lane>
    <lane id=":1257_0_1" index="1" disallow="all" speed="17.88" length="47.29" width="0.50" shape="109.54,733.93 62.25,734.76">
      <param key="origId" value="1265_6"/>
    </lane>
    <lane id=":1257_0_2" index="2" disallow="pedestrian tram rail_urban rail rail_electric rail_fast ship" speed="17.88" length="47.29" width="3.50" shape="109.50,731.93 62.21,732.76">
      <param key="origId" value="1265_5"/>
    </lane>
    <lane id=":1257_0_3" index="3" disallow="pedestrian tram rail_urban rail rail_electric rail_fast ship" speed="17.88" length="47.29" width="3.50" shape="109.44,728.43 62.15,729.26">
      <param key="origId" value="1265_4"/>
    </lane>
    <lane id=":1257_0_4" index="4" disallow="pedestrian tram rail_urban rail rail_electric rail_fast ship" speed="17.88" length="47.29" width="3.50" shape="109.38,724.93 62.09,725.76">
      <param key="origId" value="1265_3"/>
    </lane>
  </edge>
  <edge id=":1257_5" function="internal">
    <lane id=":1257_5_0" index="0" disallow="pedestrian tram rail_urban rail rail_electric rail_fast ship" speed="17.88" length="36.93" width="3.25" shape="109.31,721.43 98.52,720.47 91.28,718.08 84.03,715.68 73.24,714.73">
      <param key="origId" value="1269_1"/>
    </lane>
  </edge>
  <edge id=":1257_6" function="internal">
    <lane id=":1257_6_0" index="0" disallow="all" speed="17.88" length="47.42" width="0.50" shape="109.28,719.43 62.05,723.76">
      <param key="origId" value="1265_1"/>
    </lane>
  </edge>
  <edge id=":1257_7" function="internal">
    <lane id=":1257_7_0" index="0" disallow="all" speed="17.88" length="35.94" width="0.50" shape="109.20,715.94 73.27,716.61">
      <param key="origId" value="1262_7"/>
    </lane>
  </edge>
  <edge id=":1257_8" function="internal">
    <lane id=":1257_8_0" index="0" disallow="pedestrian tram rail_urban rail rail_electric rail_fast ship" speed="17.88" length="48.90" width="3.50" shape="109.17,714.07 94.99,716.03 85.63,719.92 76.27,723.82 62.09,725.76">
      <param key="origId" value="1261_1"/>
    </lane>
  </edge>
  <edge id=":1257_9" function="internal">